test/test_files/IEEE_test_cases/IEEE 57 bus.EPC
title
 08/25/93 UW ARCHIVE           100.0  1961 W IEEE 57 Bus Test Case
!
comments
!
solution parameters
tap    1    tcul  enabled/disabled
phas   1    ps    enabled/disabled
area   1    area  enabled/disabled
svd    1    svd   enabled/disabled
dctap  1    dc    enabled/disabled
gcd    1    gcd   enabled/disabled
jump  0.000290    jumper threshold
toler   0.1000    newton tolerance
sbase 100.0000    system mva base
!
bus data  [57]               ty  vsched   volt     angle    ar zone  vmax   vmin   date_in date_out pid L own st  latitude  longitude island    sdmon   vmax1      vmin1      dvmax
      1 "Kanawha     " 138.0000 :  0 1.04000 1.040000   0.00000   1    1 1.1000 0.9000   400101   391231   0 0   1 0    0.00000    0.00000 0    0.00000    0.00000    0.00000
      2 "Turner      " 138.0000 :  2 1.01000 1.010000  -1.18816   1    1 1.1000 0.9000   400101   391231   0 0   1 0    0.00000    0.00000 0    0.00000    0.00000    0.00000
      3 "Logan       " 138.0000 :  2 0.98500 0.985000  -5.98813   1    1 1.1000 0.9000   400101   391231   0 0   1 0    0.00000    0.00000 0    0.00000    0.00000    0.00000
      4 "Sprigg      " 138.0000 :  1 0.980780 0.980780  -7.33737   1    1 1.1000 0.9000   400101   391231   0 0   1 0    0.00000    0.00000 0    0.00000    0.00000    0.00000
      5 "Bus 5       " 138.0000 :  1 0.976499 0.976499  -8.54641   1    1 1.1000 0.9000   400101   391231   0 0   1 0    0.00000    0.00000 0    0.00000    0.00000    0.00000
      6 "Beaver C    " 138.0000 :  2 0.98000 0.980000  -8.67412   1    1 1.1000 0.9000   400101   391231   0 0   1 0    0.00000    0.00000 0    0.00000    0.00000    0.00000
      7 "Bus 7       " 138.0000 :  1 0.984202 0.984202  -7.60140   1    1 1.1000 0.9000   400101   391231   0 0   1 0    0.00000    0.00000 0    0.00000    0.00000    0.00000
      8 "Clinch R    " 138.0000 :  2 1.00500 1.005000  -4.47791   1    1 1.1000 0.9000   400101   391231   0 0   1 0    0.00000    0.00000 0    0.00000    0.00000    0.00000
      9 "Saltvill    " 138.0000 :  2 0.98000 0.980000  -9.58467   1    1 1.1000 0.9000   400101   391231   0 0   1 0    0.00000    0.00000 0    0.00000    0.00000    0.00000
     10 "Bus 10      " 138.0000 :  1 0.986242 0.986242 -11.44966   1    1 1.1000 0.9000   400101   391231   0 0   1 0    0.00000    0.00000 0    0.00000    0.00000    0.00000
     11 "Tazewell    " 138.0000 :  1 0.973962 0.973962 -10.19325   1    1 1.1000 0.9000   400101   391231   0 0   1 0    0.00000    0.00000 0    0.00000    0.00000    0.00000
     12 "Glen Lyn    " 138.0000 :  2 1.01500 1.015000 -10.47121   1    1 1.1000 0.9000   400101   391231   0 0   1 0    0.00000    0.00000 0    0.00000    0.00000    0.00000
     13 "Bus 13      " 138.0000 :  1 0.978887 0.978887  -9.80352   1    1 1.1000 0.9000   400101   391231   0 0   1 0    0.00000    0.00000 0    0.00000    0.00000    0.00000
     14 "Bus 14      " 138.0000 :  1 0.970177 0.970177  -9.35031   1    1 1.1000 0.9000   400101   391231   0 0   1 0    0.00000    0.00000 0    0.00000    0.00000    0.00000
     15 "Bus 15      " 138.0000 :  1 0.988032 0.988032  -7.19017   1    1 1.1000 0.9000   400101   391231   0 0   1 0    0.00000    0.00000 0    0.00000    0.00000    0.00000
     16 "Bus 16      " 138.0000 :  1 1.013369 1.013369  -8.85894   1    1 1.1000 0.9000   400101   391231   0 0   1 0    0.00000    0.00000 0    0.00000    0.00000    0.00000
     17 "Bus 17      " 138.0000 :  1 1.017454 1.017454  -5.39589   1    1 1.1000 0.9000   400101   391231   0 0   1 0    0.00000    0.00000 0    0.00000    0.00000    0.00000
     18 "Sprigg      " 138.0000 :  1 1.000659 1.000659 -11.72964   1    1 1.1000 0.9000   400101   391231   0 0   1 0    0.00000    0.00000 0    0.00000    0.00000    0.00000
     19 "Bus 19      " 138.0000 :  1 0.970158 0.970158 -13.22651   1    1 1.1000 0.9000   400101   391231   0 0   1 0    0.00000    0.00000 0    0.00000    0.00000    0.00000
     20 "Bus 20      " 138.0000 :  1 0.963790 0.963790 -13.44431   1    1 1.1000 0.9000   400101   391231   0 0   1 0    0.00000    0.00000 0    0.00000    0.00000    0.00000
     21 "Bus 21      " 138.0000 :  1 1.008498 1.008498 -12.92901   1    1 1.1000 0.9000   400101   391231   0 0   1 0    0.00000    0.00000 0    0.00000    0.00000    0.00000
     22 "Bus 22      " 138.0000 :  1 1.009744 1.009744 -12.87431   1    1 1.1000 0.9000   400101   391231   0 0   1 0    0.00000    0.00000 0    0.00000    0.00000    0.00000
     23 "Bus 23      " 138.0000 :  1 1.008330 1.008330 -12.93956   1    1 1.1000 0.9000   400101   391231   0 0   1 0    0.00000    0.00000 0    0.00000    0.00000    0.00000
     24 "Bus 24      " 138.0000 :  1 0.999233 0.999233 -13.29212   1    1 1.1000 0.9000   400101   391231   0 0   1 0    0.00000    0.00000 0    0.00000    0.00000    0.00000
     25 "Bus 25      " 138.0000 :  1 0.982521 0.982521 -18.17323   1    1 1.1000 0.9000   400101   391231   0 0   1 0    0.00000    0.00000 0    0.00000    0.00000    0.00000
     26 "Bus 26      " 138.0000 :  1 0.958818 0.958818 -12.98126   1    1 1.1000 0.9000   400101   391231   0 0   1 0    0.00000    0.00000 0    0.00000    0.00000    0.00000
     27 "Bus 27      " 138.0000 :  1 0.981541 0.981541 -11.51362   1    1 1.1000 0.9000   400101   391231   0 0   1 0    0.00000    0.00000 0    0.00000    0.00000    0.00000
     28 "Bus 28      " 138.0000 :  1 0.996678 0.996678 -10.48161   1    1 1.1000 0.9000   400101   391231   0 0   1 0    0.00000    0.00000 0    0.00000    0.00000    0.00000
     29 "Bus 29      " 138.0000 :  1 1.010220 1.010220  -9.77178   1    1 1.1000 0.9000   400101   391231   0 0   1 0    0.00000    0.00000 0    0.00000    0.00000    0.00000
     30 "Bus 30      " 138.0000 :  1 0.962661 0.962661 -18.71965   1    1 1.1000 0.9000   400101   391231   0 0   1 0    0.00000    0.00000 0    0.00000    0.00000    0.00000
     31 "Bus 31      " 138.0000 :  1 0.935932 0.935932 -19.38381   1    1 1.1000 0.9000   400101   391231   0 0   1 0    0.00000    0.00000 0    0.00000    0.00000    0.00000
     32 "Bus 32      " 138.0000 :  1 0.949875 0.949875 -18.51234   1    1 1.1000 0.9000   400101   391231   0 0   1 0    0.00000    0.00000 0    0.00000    0.00000    0.00000
     33 "Bus 33      " 138.0000 :  1 0.947581 0.947581 -18.55201   1    1 1.1000 0.9000   400101   391231   0 0   1 0    0.00000    0.00000 0    0.00000    0.00000    0.00000
     34 "Bus 34      " 138.0000 :  1 0.959200 0.959200 -14.14896   1    1 1.1000 0.9000   400101   391231   0 0   1 0    0.00000    0.00000 0    0.00000    0.00000    0.00000
     35 "Bus 35      " 138.0000 :  1 0.966212 0.966212 -13.90619   1    1 1.1000 0.9000   400101   391231   0 0   1 0    0.00000    0.00000 0    0.00000    0.00000    0.00000
     36 "Bus 36      " 138.0000 :  1 0.975828 0.975828 -13.63482   1    1 1.1000 0.9000   400101   391231   0 0   1 0    0.00000    0.00000 0    0.00000    0.00000    0.00000
     37 "Bus 37      " 138.0000 :  1 0.984886 0.984886 -13.44592   1    1 1.1000 0.9000   400101   391231   0 0   1 0    0.00000    0.00000 0    0.00000    0.00000    0.00000
     38 "Bus 38      " 138.0000 :  1 1.012812 1.012812 -12.73462   1    1 1.1000 0.9000   400101   391231   0 0   1 0    0.00000    0.00000 0    0.00000    0.00000    0.00000
     39 "Bus 39      " 138.0000 :  1 0.982823 0.982823 -13.49103   1    1 1.1000 0.9000   400101   391231   0 0   1 0    0.00000    0.00000 0    0.00000    0.00000    0.00000
     40 "Bus 40      " 138.0000 :  1 0.972811 0.972811 -13.65824   1    1 1.1000 0.9000   400101   391231   0 0   1 0    0.00000    0.00000 0    0.00000    0.00000    0.00000
     41 "Tazewell    " 138.0000 :  1 0.996217 0.996217 -14.07668   1    1 1.1000 0.9000   400101   391231   0 0   1 0    0.00000    0.00000 0    0.00000    0.00000    0.00000
     42 "Bus 42      " 138.0000 :  1 0.966526 0.966526 -15.53279   1    1 1.1000 0.9000   400101   391231   0 0   1 0    0.00000    0.00000 0    0.00000    0.00000    0.00000
     43 "Tazewell    " 138.0000 :  1 1.009564 1.009564 -11.35439   1    1 1.1000 0.9000   400101   391231   0 0   1 0    0.00000    0.00000 0    0.00000    0.00000    0.00000
     44 "Bus 44      " 138.0000 :  1 1.016799 1.016799 -11.85646   1    1 1.1000 0.9000   400101   391231   0 0   1 0    0.00000    0.00000 0    0.00000    0.00000    0.00000
     45 "Bus 45      " 138.0000 :  1 1.036005 1.036005  -9.27010   1    1 1.1000 0.9000   400101   391231   0 0   1 0    0.00000    0.00000 0    0.00000    0.00000    0.00000
     46 "Bus 46      " 138.0000 :  1 1.059797 1.059797 -11.11607   1    1 1.1000 0.9000   400101   391231   0 0   1 0    0.00000    0.00000 0    0.00000    0.00000    0.00000
     47 "Bus 47      " 138.0000 :  1 1.033251 1.033251 -12.51159   1    1 1.1000 0.9000   400101   391231   0 0   1 0    0.00000    0.00000 0    0.00000    0.00000    0.00000
     48 "Bus 48      " 138.0000 :  1 1.027351 1.027351 -12.61066   1    1 1.1000 0.9000   400101   391231   0 0   1 0    0.00000    0.00000 0    0.00000    0.00000    0.00000
     49 "Bus 49      " 138.0000 :  1 1.036246 1.036246 -12.93608   1    1 1.1000 0.9000   400101   391231   0 0   1 0    0.00000    0.00000 0    0.00000    0.00000    0.00000
     50 "Bus 50      " 138.0000 :  1 1.023336 1.023336 -13.41271   1    1 1.1000 0.9000   400101   391231   0 0   1 0    0.00000    0.00000 0    0.00000    0.00000    0.00000
     51 "Bus 51      " 138.0000 :  1 1.052262 1.052262 -12.53340   1    1 1.1000 0.9000   400101   391231   0 0   1 0    0.00000    0.00000 0    0.00000    0.00000    0.00000
     52 "Bus 52      " 138.0000 :  1 0.980368 0.980368 -11.49756   1    1 1.1000 0.9000   400101   391231   0 0   1 0    0.00000    0.00000 0    0.00000    0.00000    0.00000
     53 "Bus 53      " 138.0000 :  1 0.970945 0.970945 -12.25259   1    1 1.1000 0.9000   400101   391231   0 0   1 0    0.00000    0.00000 0    0.00000    0.00000    0.00000
     54 "Bus 54      " 138.0000 :  1 0.996319 0.996319 -11.70966   1    1 1.1000 0.9000   400101   391231   0 0   1 0    0.00000    0.00000 0    0.00000    0.00000    0.00000
     55 "Saltvill    " 138.0000 :  1 1.030786 1.030786 -10.80113   1    1 1.1000 0.9000   400101   391231   0 0   1 0    0.00000    0.00000 0    0.00000    0.00000    0.00000
     56 "Bus 56      " 138.0000 :  1 0.968369 0.968369 -16.06507   1    1 1.1000 0.9000   400101   391231   0 0   1 0    0.00000    0.00000 0    0.00000    0.00000    0.00000
     57 "Bus 57      " 138.0000 :  1 0.964826 0.964826 -16.58370   1    1 1.1000 0.9000   400101   391231   0 0   1 0    0.00000    0.00000 0    0.00000    0.00000    0.00000
branch data  [   65]                                          ck  se  ------------long_id_------------    st resist   react   charge   rate1  rate2  rate3  rate4 aloss  lngth
      1 "Kanawha     " 138.00       2 "Turner      " 138.00  "1 "  1 "                                " :  1  0.008300  0.028000  0.129000    0.0    0.0    0.0    0.0 0.000    1.0 /
   1    1  0.000000  0.000000  1.000000   400101   391231   0 1  0    0.0    0.0    0.0    0.0   1 1.000   0 0.000   0 0.000   0 0.000   0 0.000   0 0.000   0 0.000   0 0.000  0 0
      1 "Kanawha     " 138.00      15 "Bus 15      " 138.00  "1 "  1 "                                " :  1  0.017800  0.091000  0.098800    0.0    0.0    0.0    0.0 0.000    1.0 /
   1    1  0.000000  0.000000  1.000000   400101   391231   0 1  0    0.0    0.0    0.0    0.0   1 1.000   0 0.000   0 0.000   0 0.000   0 0.000   0 0.000   0 0.000   0 0.000  0 0
      1 "Kanawha     " 138.00      16 "Bus 16      " 138.00  "1 "  1 "                                " :  1  0.045400  0.206000  0.054600    0.0    0.0    0.0    0.0 0.000    1.0 /
   1    1  0.000000  0.000000  1.000000   400101   391231   0 1  0    0.0    0.0    0.0    0.0   1 1.000   0 0.000   0 0.000   0 0.000   0 0.000   0 0.000   0 0.000   0 0.000  0 0
      1 "Kanawha     " 138.00      17 "Bus 17      " 138.00  "1 "  1 "                                " :  1  0.023800  0.108000  0.028600    0.0    0.0    0.0    0.0 0.000    1.0 /
   1    1  0.000000  0.000000  1.000000   400101   391231   0 1  0    0.0    0.0    0.0    0.0   1 1.000   0 0.000   0 0.000   0 0.000   0 0.000   0 0.000   0 0.000   0 0.000  0 0
      2 "Turner      " 138.00       3 "Logan       " 138.00  "1 "  1 "                                " :  1  0.029800  0.085000  0.081800    0.0    0.0    0.0    0.0 0.000    1.0 /
   1    1  0.000000  0.000000  1.000000   400101   391231   0 1  0    0.0    0.0    0.0    0.0   1 1.000   0 0.000   0 0.000   0 0.000   0 0.000   0 0.000   0 0.000   0 0.000  0 0
      3 "Logan       " 138.00       4 "Sprigg      " 138.00  "1 "  1 "                                " :  1  0.011200  0.036600  0.038000    0.0    0.0    0.0    0.0 0.000    1.0 /
   1    1  0.000000  0.000000  1.000000   400101   391231   0 1  0    0.0    0.0    0.0    0.0   1 1.000   0 0.000   0 0.000   0 0.000   0 0.000   0 0.000   0 0.000   0 0.000  0 0
      3 "Logan       " 138.00      15 "Bus 15      " 138.00  "1 "  1 "                                " :  1  0.016200  0.053000  0.054400    0.0    0.0    0.0    0.0 0.000    1.0 /
   1    1  0.000000  0.000000  1.000000   400101   391231   0 1  0    0.0    0.0    0.0    0.0   1 1.000   0 0.000   0 0.000   0 0.000   0 0.000   0 0.000   0 0.000   0 0.000  0 0
      4 "Sprigg      " 138.00       5 "Bus 5       " 138.00  "1 "  1 "                                " :  1  0.062500  0.132000  0.025800    0.0    0.0    0.0    0.0 0.000    1.0 /
   1    1  0.000000  0.000000  1.000000   400101   391231   0 1  0    0.0    0.0    0.0    0.0   1 1.000   0 0.000   0 0.000   0 0.000   0 0.000   0 0.000   0 0.000   0 0.000  0 0
      4 "Sprigg      " 138.00       6 "Beaver C    " 138.00  "1 "  1 "                                " :  1  0.043000  0.148000  0.034800    0.0    0.0    0.0    0.0 0.000    1.0 /
   1    1  0.000000  0.000000  1.000000   400101   391231   0 1  0    0.0    0.0    0.0    0.0   1 1.000   0 0.000   0 0.000   0 0.000   0 0.000   0 0.000   0 0.000   0 0.000  0 0
      5 "Bus 5       " 138.00       6 "Beaver C    " 138.00  "1 "  1 "                                " :  1  0.030200  0.064100  0.012400    0.0    0.0    0.0    0.0 0.000    1.0 /
   1    1  0.000000  0.000000  1.000000   400101   391231   0 1  0    0.0    0.0    0.0    0.0   1 1.000   0 0.000   0 0.000   0 0.000   0 0.000   0 0.000   0 0.000   0 0.000  0 0
      6 "Beaver C    " 138.00       7 "Bus 7       " 138.00  "1 "  1 "                                " :  1  0.020000  0.102000  0.027600    0.0    0.0    0.0    0.0 0.000    1.0 /
   1    1  0.000000  0.000000  1.000000   400101   391231   0 1  0    0.0    0.0    0.0    0.0   1 1.000   0 0.000   0 0.000   0 0.000   0 0.000   0 0.000   0 0.000   0 0.000  0 0
      6 "Beaver C    " 138.00       8 "Clinch R    " 138.00  "1 "  1 "                                " :  1  0.033900  0.173000  0.047000    0.0    0.0    0.0    0.0 0.000    1.0 /
   1    1  0.000000  0.000000  1.000000   400101   391231   0 1  0    0.0    0.0    0.0    0.0   1 1.000   0 0.000   0 0.000   0 0.000   0 0.000   0 0.000   0 0.000   0 0.000  0 0
      7 "Bus 7       " 138.00       8 "Clinch R    " 138.00  "1 "  1 "                                " :  1  0.013900  0.071200  0.019400    0.0    0.0    0.0    0.0 0.000    1.0 /
   1    1  0.000000  0.000000  1.000000   400101   391231   0 1  0    0.0    0.0    0.0    0.0   1 1.000   0 0.000   0 0.000   0 0.000   0 0.000   0 0.000   0 0.000   0 0.000  0 0
      8 "Clinch R    " 138.00       9 "Saltvill    " 138.00  "1 "  1 "                                " :  1  0.009900  0.050500  0.054800    0.0    0.0    0.0    0.0 0.000    1.0 /
   1    1  0.000000  0.000000  1.000000   400101   391231   0 1  0    0.0    0.0    0.0    0.0   1 1.000   0 0.000   0 0.000   0 0.000   0 0.000   0 0.000   0 0.000   0 0.000  0 0
      9 "Saltvill    " 138.00      10 "Bus 10      " 138.00  "1 "  1 "                                " :  1  0.036900  0.167900  0.044000    0.0    0.0    0.0    0.0 0.000    1.0 /
   1    1  0.000000  0.000000  1.000000   400101   391231   0 1  0    0.0    0.0    0.0    0.0   1 1.000   0 0.000   0 0.000   0 0.000   0 0.000   0 0.000   0 0.000   0 0.000  0 0
      9 "Saltvill    " 138.00      11 "Tazewell    " 138.00  "1 "  1 "                                " :  1  0.025800  0.084800  0.021800    0.0    0.0    0.0    0.0 0.000    1.0 /
   1    1  0.000000  0.000000  1.000000   400101   391231   0 1  0    0.0    0.0    0.0    0.0   1 1.000   0 0.000   0 0.000   0 0.000   0 0.000   0 0.000   0 0.000   0 0.000  0 0
      9 "Saltvill    " 138.00      12 "Glen Lyn    " 138.00  "1 "  1 "                                " :  1  0.064800  0.295000  0.077200    0.0    0.0    0.0    0.0 0.000    1.0 /
   1    1  0.000000  0.000000  1.000000   400101   391231   0 1  0    0.0    0.0    0.0    0.0   1 1.000   0 0.000   0 0.000   0 0.000   0 0.000   0 0.000   0 0.000   0 0.000  0 0
      9 "Saltvill    " 138.00      13 "Bus 13      " 138.00  "1 "  1 "                                " :  1  0.048100  0.158000  0.040600    0.0    0.0    0.0    0.0 0.000    1.0 /
   1    1  0.000000  0.000000  1.000000   400101   391231   0 1  0    0.0    0.0    0.0    0.0   1 1.000   0 0.000   0 0.000   0 0.000   0 0.000   0 0.000   0 0.000   0 0.000  0 0
     10 "Bus 10      " 138.00      12 "Glen Lyn    " 138.00  "1 "  1 "                                " :  1  0.027700  0.126200  0.032800    0.0    0.0    0.0    0.0 0.000    1.0 /
   1    1  0.000000  0.000000  1.000000   400101   391231   0 1  0    0.0    0.0    0.0    0.0   1 1.000   0 0.000   0 0.000   0 0.000   0 0.000   0 0.000   0 0.000   0 0.000  0 0
     11 "Tazewell    " 138.00      13 "Bus 13      " 138.00  "1 "  1 "                                " :  1  0.022300  0.073200  0.018800    0.0    0.0    0.0    0.0 0.000    1.0 /
   1    1  0.000000  0.000000  1.000000   400101   391231   0 1  0    0.0    0.0    0.0    0.0   1 1.000   0 0.000   0 0.000   0 0.000   0 0.000   0 0.000   0 0.000   0 0.000  0 0
     12 "Glen Lyn    " 138.00      13 "Bus 13      " 138.00  "1 "  1 "                                " :  1  0.017800  0.058000  0.060400    0.0    0.0    0.0    0.0 0.000    1.0 /
   1    1  0.000000  0.000000  1.000000   400101   391231   0 1  0    0.0    0.0    0.0    0.0   1 1.000   0 0.000   0 0.000   0 0.000   0 0.000   0 0.000   0 0.000   0 0.000  0 0
     12 "Glen Lyn    " 138.00      16 "Bus 16      " 138.00  "1 "  1 "                                " :  1  0.018000  0.081300  0.021600    0.0    0.0    0.0    0.0 0.000    1.0 /
   1    1  0.000000  0.000000  1.000000   400101   391231   0 1  0    0.0    0.0    0.0    0.0   1 1.000   0 0.000   0 0.000   0 0.000   0 0.000   0 0.000   0 0.000   0 0.000  0 0
     12 "Glen Lyn    " 138.00      17 "Bus 17      " 138.00  "1 "  1 "                                " :  1  0.039700  0.179000  0.047600    0.0    0.0    0.0    0.0 0.000    1.0 /
   1    1  0.000000  0.000000  1.000000   400101   391231   0 1  0    0.0    0.0    0.0    0.0   1 1.000   0 0.000   0 0.000   0 0.000   0 0.000   0 0.000   0 0.000   0 0.000  0 0
     13 "Bus 13      " 138.00      14 "Bus 14      " 138.00  "1 "  1 "                                " :  1  0.013200  0.043400  0.011000    0.0    0.0    0.0    0.0 0.000    1.0 /
   1    1  0.000000  0.000000  1.000000   400101   391231   0 1  0    0.0    0.0    0.0    0.0   1 1.000   0 0.000   0 0.000   0 0.000   0 0.000   0 0.000   0 0.000   0 0.000  0 0
     13 "Bus 13      " 138.00      15 "Bus 15      " 138.00  "1 "  1 "                                " :  1  0.026900  0.086900  0.023000    0.0    0.0    0.0    0.0 0.000    1.0 /
   1    1  0.000000  0.000000  1.000000   400101   391231   0 1  0    0.0    0.0    0.0    0.0   1 1.000   0 0.000   0 0.000   0 0.000   0 0.000   0 0.000   0 0.000   0 0.000  0 0
     14 "Bus 14      " 138.00      15 "Bus 15      " 138.00  "1 "  1 "                                " :  1  0.017100  0.054700  0.014800    0.0    0.0    0.0    0.0 0.000    1.0 /
   1    1  0.000000  0.000000  1.000000   400101   391231   0 1  0    0.0    0.0    0.0    0.0   1 1.000   0 0.000   0 0.000   0 0.000   0 0.000   0 0.000   0 0.000   0 0.000  0 0
     18 "Sprigg      " 138.00      19 "Bus 19      " 138.00  "1 "  1 "                                " :  1  0.461000  0.685000  0.000000    0.0    0.0    0.0    0.0 0.000    1.0 /
   1    1  0.000000  0.000000  1.000000   400101   391231   0 1  0    0.0    0.0    0.0    0.0   1 1.000   0 0.000   0 0.000   0 0.000   0 0.000   0 0.000   0 0.000   0 0.000  0 0
     19 "Bus 19      " 138.00      20 "Bus 20      " 138.00  "1 "  1 "                                " :  1  0.283000  0.434000  0.000000    0.0    0.0    0.0    0.0 0.000    1.0 /
   1    1  0.000000  0.000000  1.000000   400101   391231   0 1  0    0.0    0.0    0.0    0.0   1 1.000   0 0.000   0 0.000   0 0.000   0 0.000   0 0.000   0 0.000   0 0.000  0 0
     21 "Bus 21      " 138.00      22 "Bus 22      " 138.00  "1 "  1 "                                " :  1  0.073600  0.117000  0.000000    0.0    0.0    0.0    0.0 0.000    1.0 /
   1    1  0.000000  0.000000  1.000000   400101   391231   0 1  0    0.0    0.0    0.0    0.0   1 1.000   0 0.000   0 0.000   0 0.000   0 0.000   0 0.000   0 0.000   0 0.000  0 0
     22 "Bus 22      " 138.00      23 "Bus 23      " 138.00  "1 "  1 "                                " :  1  0.009900  0.015200  0.000000    0.0    0.0    0.0    0.0 0.000    1.0 /
   1    1  0.000000  0.000000  1.000000   400101   391231   0 1  0    0.0    0.0    0.0    0.0   1 1.000   0 0.000   0 0.000   0 0.000   0 0.000   0 0.000   0 0.000   0 0.000  0 0
     22 "Bus 22      " 138.00      38 "Bus 38      " 138.00  "1 "  1 "                                " :  1  0.019200  0.029500  0.000000    0.0    0.0    0.0    0.0 0.000    1.0 /
   1    1  0.000000  0.000000  1.000000   400101   391231   0 1  0    0.0    0.0    0.0    0.0   1 1.000   0 0.000   0 0.000   0 0.000   0 0.000   0 0.000   0 0.000   0 0.000  0 0
     23 "Bus 23      " 138.00      24 "Bus 24      " 138.00  "1 "  1 "                                " :  1  0.166000  0.256000  0.008400    0.0    0.0    0.0    0.0 0.000    1.0 /
   1    1  0.000000  0.000000  1.000000   400101   391231   0 1  0    0.0    0.0    0.0    0.0   1 1.000   0 0.000   0 0.000   0 0.000   0 0.000   0 0.000   0 0.000   0 0.000  0 0
     24 "Bus 24      " 138.00      25 "Bus 25      " 138.00  "1 "  1 "                                " :  1  0.000000  1.182000  0.000000    0.0    0.0    0.0    0.0 0.000    1.0 /
   1    1  0.000000  0.000000  1.000000   400101   391231   0 1  0    0.0    0.0    0.0    0.0   1 1.000   0 0.000   0 0.000   0 0.000   0 0.000   0 0.000   0 0.000   0 0.000  0 0
     24 "Bus 24      " 138.00      25 "Bus 25      " 138.00  "1 "  1 "                                " :  1  0.000000  1.230000  0.000000    0.0    0.0    0.0    0.0 0.000    1.0 /
   1    1  0.000000  0.000000  1.000000   400101   391231   0 1  0    0.0    0.0    0.0    0.0   1 1.000   0 0.000   0 0.000   0 0.000   0 0.000   0 0.000   0 0.000   0 0.000  0 0
     25 "Bus 25      " 138.00      30 "Bus 30      " 138.00  "1 "  1 "                                " :  1  0.135000  0.202000  0.000000    0.0    0.0    0.0    0.0 0.000    1.0 /
   1    1  0.000000  0.000000  1.000000   400101   391231   0 1  0    0.0    0.0    0.0    0.0   1 1.000   0 0.000   0 0.000   0 0.000   0 0.000   0 0.000   0 0.000   0 0.000  0 0
     26 "Bus 26      " 138.00      27 "Bus 27      " 138.00  "1 "  1 "                                " :  1  0.165000  0.254000  0.000000    0.0    0.0    0.0    0.0 0.000    1.0 /
   1    1  0.000000  0.000000  1.000000   400101   391231   0 1  0    0.0    0.0    0.0    0.0   1 1.000   0 0.000   0 0.000   0 0.000   0 0.000   0 0.000   0 0.000   0 0.000  0 0
     27 "Bus 27      " 138.00      28 "Bus 28      " 138.00  "1 "  1 "                                " :  1  0.061800  0.095400  0.000000    0.0    0.0    0.0    0.0 0.000    1.0 /
   1    1  0.000000  0.000000  1.000000   400101   391231   0 1  0    0.0    0.0    0.0    0.0   1 1.000   0 0.000   0 0.000   0 0.000   0 0.000   0 0.000   0 0.000   0 0.000  0 0
     28 "Bus 28      " 138.00      29 "Bus 29      " 138.00  "1 "  1 "                                " :  1  0.041800  0.058700  0.000000    0.0    0.0    0.0    0.0 0.000    1.0 /
   1    1  0.000000  0.000000  1.000000   400101   391231   0 1  0    0.0    0.0    0.0    0.0   1 1.000   0 0.000   0 0.000   0 0.000   0 0.000   0 0.000   0 0.000   0 0.000  0 0
     29 "Bus 29      " 138.00      52 "Bus 52      " 138.00  "1 "  1 "                                " :  1  0.144200  0.187000  0.000000    0.0    0.0    0.0    0.0 0.000    1.0 /
   1    1  0.000000  0.000000  1.000000   400101   391231   0 1  0    0.0    0.0    0.0    0.0   1 1.000   0 0.000   0 0.000   0 0.000   0 0.000   0 0.000   0 0.000   0 0.000  0 0
     30 "Bus 30      " 138.00      31 "Bus 31      " 138.00  "1 "  1 "                                " :  1  0.326000  0.497000  0.000000    0.0    0.0    0.0    0.0 0.000    1.0 /
   1    1  0.000000  0.000000  1.000000   400101   391231   0 1  0    0.0    0.0    0.0    0.0   1 1.000   0 0.000   0 0.000   0 0.000   0 0.000   0 0.000   0 0.000   0 0.000  0 0
     31 "Bus 31      " 138.00      32 "Bus 32      " 138.00  "1 "  1 "                                " :  1  0.507000  0.755000  0.000000    0.0    0.0    0.0    0.0 0.000    1.0 /
   1    1  0.000000  0.000000  1.000000   400101   391231   0 1  0    0.0    0.0    0.0    0.0   1 1.000   0 0.000   0 0.000   0 0.000   0 0.000   0 0.000   0 0.000   0 0.000  0 0
     32 "Bus 32      " 138.00      33 "Bus 33      " 138.00  "1 "  1 "                                " :  1  0.039200  0.036000  0.000000    0.0    0.0    0.0    0.0 0.000    1.0 /
   1    1  0.000000  0.000000  1.000000   400101   391231   0 1  0    0.0    0.0    0.0    0.0   1 1.000   0 0.000   0 0.000   0 0.000   0 0.000   0 0.000   0 0.000   0 0.000  0 0
     34 "Bus 34      " 138.00      35 "Bus 35      " 138.00  "1 "  1 "                                " :  1  0.052000  0.078000  0.003200    0.0    0.0    0.0    0.0 0.000    1.0 /
   1    1  0.000000  0.000000  1.000000   400101   391231   0 1  0    0.0    0.0    0.0    0.0   1 1.000   0 0.000   0 0.000   0 0.000   0 0.000   0 0.000   0 0.000   0 0.000  0 0
     35 "Bus 35      " 138.00      36 "Bus 36      " 138.00  "1 "  1 "                                " :  1  0.043000  0.053700  0.001600    0.0    0.0    0.0    0.0 0.000    1.0 /
   1    1  0.000000  0.000000  1.000000   400101   391231   0 1  0    0.0    0.0    0.0    0.0   1 1.000   0 0.000   0 0.000   0 0.000   0 0.000   0 0.000   0 0.000   0 0.000  0 0
     36 "Bus 36      " 138.00      37 "Bus 37      " 138.00  "1 "  1 "                                " :  1  0.029000  0.036600  0.000000    0.0    0.0    0.0    0.0 0.000    1.0 /
   1    1  0.000000  0.000000  1.000000   400101   391231   0 1  0    0.0    0.0    0.0    0.0   1 1.000   0 0.000   0 0.000   0 0.000   0 0.000   0 0.000   0 0.000   0 0.000  0 0
     36 "Bus 36      " 138.00      40 "Bus 40      " 138.00  "1 "  1 "                                " :  1  0.030000  0.046600  0.000000    0.0    0.0    0.0    0.0 0.000    1.0 /
   1    1  0.000000  0.000000  1.000000   400101   391231   0 1  0    0.0    0.0    0.0    0.0   1 1.000   0 0.000   0 0.000   0 0.000   0 0.000   0 0.000   0 0.000   0 0.000  0 0
     37 "Bus 37      " 138.00      38 "Bus 38      " 138.00  "1 "  1 "                                " :  1  0.065100  0.100900  0.002000    0.0    0.0    0.0    0.0 0.000    1.0 /
   1    1  0.000000  0.000000  1.000000   400101   391231   0 1  0    0.0    0.0    0.0    0.0   1 1.000   0 0.000   0 0.000   0 0.000   0 0.000   0 0.000   0 0.000   0 0.000  0 0
     37 "Bus 37      " 138.00      39 "Bus 39      " 138.00  "1 "  1 "                                " :  1  0.023900  0.037900  0.000000    0.0    0.0    0.0    0.0 0.000    1.0 /
   1    1  0.000000  0.000000  1.000000   400101   391231   0 1  0    0.0    0.0    0.0    0.0   1 1.000   0 0.000   0 0.000   0 0.000   0 0.000   0 0.000   0 0.000   0 0.000  0 0
     38 "Bus 38      " 138.00      44 "Bus 44      " 138.00  "1 "  1 "                                " :  1  0.028900  0.058500  0.002000    0.0    0.0    0.0    0.0 0.000    1.0 /
   1    1  0.000000  0.000000  1.000000   400101   391231   0 1  0    0.0    0.0    0.0    0.0   1 1.000   0 0.000   0 0.000   0 0.000   0 0.000   0 0.000   0 0.000   0 0.000  0 0
     38 "Bus 38      " 138.00      48 "Bus 48      " 138.00  "1 "  1 "                                " :  1  0.031200  0.048200  0.000000    0.0    0.0    0.0    0.0 0.000    1.0 /
   1    1  0.000000  0.000000  1.000000   400101   391231   0 1  0    0.0    0.0    0.0    0.0   1 1.000   0 0.000   0 0.000   0 0.000   0 0.000   0 0.000   0 0.000   0 0.000  0 0
     38 "Bus 38      " 138.00      49 "Bus 49      " 138.00  "1 "  1 "                                " :  1  0.115000  0.177000  0.003000    0.0    0.0    0.0    0.0 0.000    1.0 /
   1    1  0.000000  0.000000  1.000000   400101   391231   0 1  0    0.0    0.0    0.0    0.0   1 1.000   0 0.000   0 0.000   0 0.000   0 0.000   0 0.000   0 0.000   0 0.000  0 0
     41 "Tazewell    " 138.00      42 "Bus 42      " 138.00  "1 "  1 "                                " :  1  0.207000  0.352000  0.000000    0.0    0.0    0.0    0.0 0.000    1.0 /
   1    1  0.000000  0.000000  1.000000   400101   391231   0 1  0    0.0    0.0    0.0    0.0   1 1.000   0 0.000   0 0.000   0 0.000   0 0.000   0 0.000   0 0.000   0 0.000  0 0
     41 "Tazewell    " 138.00      43 "Tazewell    " 138.00  "1 "  1 "                                " :  1  0.000000  0.412000  0.000000    0.0    0.0    0.0    0.0 0.000    1.0 /
   1    1  0.000000  0.000000  1.000000   400101   391231   0 1  0    0.0    0.0    0.0    0.0   1 1.000   0 0.000   0 0.000   0 0.000   0 0.000   0 0.000   0 0.000   0 0.000  0 0
     44 "Bus 44      " 138.00      45 "Bus 45      " 138.00  "1 "  1 "                                " :  1  0.062400  0.124200  0.004000    0.0    0.0    0.0    0.0 0.000    1.0 /
   1    1  0.000000  0.000000  1.000000   400101   391231   0 1  0    0.0    0.0    0.0    0.0   1 1.000   0 0.000   0 0.000   0 0.000   0 0.000   0 0.000   0 0.000   0 0.000  0 0
     46 "Bus 46      " 138.00      47 "Bus 47      " 138.00  "1 "  1 "                                " :  1  0.023000  0.068000  0.003200    0.0    0.0    0.0    0.0 0.000    1.0 /
   1    1  0.000000  0.000000  1.000000   400101   391231   0 1  0    0.0    0.0    0.0    0.0   1 1.000   0 0.000   0 0.000   0 0.000   0 0.000   0 0.000   0 0.000   0 0.000  0 0
     47 "Bus 47      " 138.00      48 "Bus 48      " 138.00  "1 "  1 "                                " :  1  0.018200  0.023300  0.000000    0.0    0.0    0.0    0.0 0.000    1.0 /
   1    1  0.000000  0.000000  1.000000   400101   391231   0 1  0    0.0    0.0    0.0    0.0   1 1.000   0 0.000   0 0.000   0 0.000   0 0.000   0 0.000   0 0.000   0 0.000  0 0
     48 "Bus 48      " 138.00      49 "Bus 49      " 138.00  "1 "  1 "                                " :  1  0.083400  0.129000  0.004800    0.0    0.0    0.0    0.0 0.000    1.0 /
   1    1  0.000000  0.000000  1.000000   400101   391231   0 1  0    0.0    0.0    0.0    0.0   1 1.000   0 0.000   0 0.000   0 0.000   0 0.000   0 0.000   0 0.000   0 0.000  0 0
     49 "Bus 49      " 138.00      50 "Bus 50      " 138.00  "1 "  1 "                                " :  1  0.080100  0.128000  0.000000    0.0    0.0    0.0    0.0 0.000    1.0 /
   1    1  0.000000  0.000000  1.000000   400101   391231   0 1  0    0.0    0.0    0.0    0.0   1 1.000   0 0.000   0 0.000   0 0.000   0 0.000   0 0.000   0 0.000   0 0.000  0 0
     50 "Bus 50      " 138.00      51 "Bus 51      " 138.00  "1 "  1 "                                " :  1  0.138600  0.220000  0.000000    0.0    0.0    0.0    0.0 0.000    1.0 /
   1    1  0.000000  0.000000  1.000000   400101   391231   0 1  0    0.0    0.0    0.0    0.0   1 1.000   0 0.000   0 0.000   0 0.000   0 0.000   0 0.000   0 0.000   0 0.000  0 0
     52 "Bus 52      " 138.00      53 "Bus 53      " 138.00  "1 "  1 "                                " :  1  0.076200  0.098400  0.000000    0.0    0.0    0.0    0.0 0.000    1.0 /
   1    1  0.000000  0.000000  1.000000   400101   391231   0 1  0    0.0    0.0    0.0    0.0   1 1.000   0 0.000   0 0.000   0 0.000   0 0.000   0 0.000   0 0.000   0 0.000  0 0
     53 "Bus 53      " 138.00      54 "Bus 54      " 138.00  "1 "  1 "                                " :  1  0.187800  0.232000  0.000000    0.0    0.0    0.0    0.0 0.000    1.0 /
   1    1  0.000000  0.000000  1.000000   400101   391231   0 1  0    0.0    0.0    0.0    0.0   1 1.000   0 0.000   0 0.000   0 0.000   0 0.000   0 0.000   0 0.000   0 0.000  0 0
     54 "Bus 54      " 138.00      55 "Saltvill    " 138.00  "1 "  1 "                                " :  1  0.173200  0.226500  0.000000    0.0    0.0    0.0    0.0 0.000    1.0 /
   1    1  0.000000  0.000000  1.000000   400101   391231   0 1  0    0.0    0.0    0.0    0.0   1 1.000   0 0.000   0 0.000   0 0.000   0 0.000   0 0.000   0 0.000   0 0.000  0 0
     56 "Bus 56      " 138.00      41 "Tazewell    " 138.00  "1 "  1 "                                " :  1  0.553000  0.549000  0.000000    0.0    0.0    0.0    0.0 0.000    1.0 /
   1    1  0.000000  0.000000  1.000000   400101   391231   0 1  0    0.0    0.0    0.0    0.0   1 1.000   0 0.000   0 0.000   0 0.000   0 0.000   0 0.000   0 0.000   0 0.000  0 0
     56 "Bus 56      " 138.00      42 "Bus 42      " 138.00  "1 "  1 "                                " :  1  0.212500  0.354000  0.000000    0.0    0.0    0.0    0.0 0.000    1.0 /
   1    1  0.000000  0.000000  1.000000   400101   391231   0 1  0    0.0    0.0    0.0    0.0   1 1.000   0 0.000   0 0.000   0 0.000   0 0.000   0 0.000   0 0.000   0 0.000  0 0
     57 "Bus 57      " 138.00      56 "Bus 56      " 138.00  "1 "  1 "                                " :  1  0.174000  0.260000  0.000000    0.0    0.0    0.0    0.0 0.000    1.0 /
   1    1  0.000000  0.000000  1.000000   400101   391231   0 1  0    0.0    0.0    0.0    0.0   1 1.000   0 0.000   0 0.000   0 0.000   0 0.000   0 0.000   0 0.000   0 0.000  0 0
transformer data  [  15]                                     ck   ------------long_id_------------     st ty --no---    reg_name          zt         int                              tert                   ar zone  tbase   ps_r    ps_x    pt_r    pt_x    ts_r    ts_x
      4 "Sprigg      " 138.00      18 "Sprigg      " 138.00  "1 " "                                " :  1  1       0 "            "   0.00  0       0 "            "   0.00       0 "            "   0.00    1    1 100.000000 0.000000E+000 5.550000E-001 0.000000E+000 0.000000E+000 0.000000E+000 0.000000E+000 /
 138.000000 138.000000  0.000000  0.000000 0.000000E+000 0.000000E+000    0.0    0.0    0.0    0.0 0.000  1.500000  0.510000  1.500000  0.510000 -0.006250  0.970000  1.000000  1.000000  1.000000   400101   391231   0 1     0.0    0.0    0.0    0.0 /
   1 1.000   0 0.000   0 0.000   0 0.000   0 0.000   0 0.000   0 0.000   0 0.000  0 /
   0.000000   0.000000  0.000000  0.000000     0.0    0.0    0.0     0.0    0.0    0.0 0.000 0.000  0  0  0 0.0000 0.0000 0
      4 "Sprigg      " 138.00      18 "Sprigg      " 138.00  "1 " "                                " :  1  1       0 "            "   0.00  0       0 "            "   0.00       0 "            "   0.00    1    1 100.000000 0.000000E+000 4.300000E-001 0.000000E+000 0.000000E+000 0.000000E+000 0.000000E+000 /
 138.000000 138.000000  0.000000  0.000000 0.000000E+000 0.000000E+000    0.0    0.0    0.0    0.0 0.000  1.500000  0.510000  1.500000  0.510000 -0.006250  0.978000  1.000000  1.000000  1.000000   400101   391231   0 1     0.0    0.0    0.0    0.0 /
   1 1.000   0 0.000   0 0.000   0 0.000   0 0.000   0 0.000   0 0.000   0 0.000  0 /
   0.000000   0.000000  0.000000  0.000000     0.0    0.0    0.0     0.0    0.0    0.0 0.000 0.000  0  0  0 0.0000 0.0000 0
      7 "Bus 7       " 138.00      29 "Bus 29      " 138.00  "1 " "                                " :  1  1       0 "            "   0.00  0       0 "            "   0.00       0 "            "   0.00    1    1 100.000000 0.000000E+000 6.480000E-002 0.000000E+000 0.000000E+000 0.000000E+000 0.000000E+000 /
 138.000000 138.000000  0.000000  0.000000 0.000000E+000 0.000000E+000    0.0    0.0    0.0    0.0 0.000  1.500000  0.510000  1.500000  0.510000 -0.006250  0.967000  1.000000  1.000000  1.000000   400101   391231   0 1     0.0    0.0    0.0    0.0 /
   1 1.000   0 0.000   0 0.000   0 0.000   0 0.000   0 0.000   0 0.000   0 0.000  0 /
   0.000000   0.000000  0.000000  0.000000     0.0    0.0    0.0     0.0    0.0    0.0 0.000 0.000  0  0  0 0.0000 0.0000 0
      9 "Saltvill    " 138.00      55 "Saltvill    " 138.00  "1 " "                                " :  1  1       0 "            "   0.00  0       0 "            "   0.00       0 "            "   0.00    1    1 100.000000 0.000000E+000 1.205000E-001 0.000000E+000 0.000000E+000 0.000000E+000 0.000000E+000 /
 138.000000 138.000000  0.000000  0.000000 0.000000E+000 0.000000E+000    0.0    0.0    0.0    0.0 0.000  1.500000  0.510000  1.500000  0.510000 -0.006250  0.940000  1.000000  1.000000  1.000000   400101   391231   0 1     0.0    0.0    0.0    0.0 /
   1 1.000   0 0.000   0 0.000   0 0.000   0 0.000   0 0.000   0 0.000   0 0.000  0 /
   0.000000   0.000000  0.000000  0.000000     0.0    0.0    0.0     0.0    0.0    0.0 0.000 0.000  0  0  0 0.0000 0.0000 0
     10 "Bus 10      " 138.00      51 "Bus 51      " 138.00  "1 " "                                " :  1  1       0 "            "   0.00  0       0 "            "   0.00       0 "            "   0.00    1    1 100.000000 0.000000E+000 7.120000E-002 0.000000E+000 0.000000E+000 0.000000E+000 0.000000E+000 /
 138.000000 138.000000  0.000000  0.000000 0.000000E+000 0.000000E+000    0.0    0.0    0.0    0.0 0.000  1.500000  0.510000  1.500000  0.510000 -0.006250  0.930000  1.000000  1.000000  1.000000   400101   391231   0 1     0.0    0.0    0.0    0.0 /
   1 1.000   0 0.000   0 0.000   0 0.000   0 0.000   0 0.000   0 0.000   0 0.000  0 /
   0.000000   0.000000  0.000000  0.000000     0.0    0.0    0.0     0.0    0.0    0.0 0.000 0.000  0  0  0 0.0000 0.0000 0
     11 "Tazewell    " 138.00      41 "Tazewell    " 138.00  "1 " "                                " :  1  1       0 "            "   0.00  0       0 "            "   0.00       0 "            "   0.00    1    1 100.000000 0.000000E+000 7.490000E-001 0.000000E+000 0.000000E+000 0.000000E+000 0.000000E+000 /
 138.000000 138.000000  0.000000  0.000000 0.000000E+000 0.000000E+000    0.0    0.0    0.0    0.0 0.000  1.500000  0.510000  1.500000  0.510000 -0.006250  0.955000  1.000000  1.000000  1.000000   400101   391231   0 1     0.0    0.0    0.0    0.0 /
   1 1.000   0 0.000   0 0.000   0 0.000   0 0.000   0 0.000   0 0.000   0 0.000  0 /
   0.000000   0.000000  0.000000  0.000000     0.0    0.0    0.0     0.0    0.0    0.0 0.000 0.000  0  0  0 0.0000 0.0000 0
     11 "Tazewell    " 138.00      43 "Tazewell    " 138.00  "1 " "                                " :  1  1       0 "            "   0.00  0       0 "            "   0.00       0 "            "   0.00    1    1 100.000000 0.000000E+000 1.530000E-001 0.000000E+000 0.000000E+000 0.000000E+000 0.000000E+000 /
 138.000000 138.000000  0.000000  0.000000 0.000000E+000 0.000000E+000    0.0    0.0    0.0    0.0 0.000  1.500000  0.510000  1.500000  0.510000 -0.006250  0.958000  1.000000  1.000000  1.000000   400101   391231   0 1     0.0    0.0    0.0    0.0 /
   1 1.000   0 0.000   0 0.000   0 0.000   0 0.000   0 0.000   0 0.000   0 0.000  0 /
   0.000000   0.000000  0.000000  0.000000     0.0    0.0    0.0     0.0    0.0    0.0 0.000 0.000  0  0  0 0.0000 0.0000 0
     13 "Bus 13      " 138.00      49 "Bus 49      " 138.00  "1 " "                                " :  1  1       0 "            "   0.00  0       0 "            "   0.00       0 "            "   0.00    1    1 100.000000 0.000000E+000 1.910000E-001 0.000000E+000 0.000000E+000 0.000000E+000 0.000000E+000 /
 138.000000 138.000000  0.000000  0.000000 0.000000E+000 0.000000E+000    0.0    0.0    0.0    0.0 0.000  1.500000  0.510000  1.500000  0.510000 -0.006250  0.895000  1.000000  1.000000  1.000000   400101   391231   0 1     0.0    0.0    0.0    0.0 /
   1 1.000   0 0.000   0 0.000   0 0.000   0 0.000   0 0.000   0 0.000   0 0.000  0 /
   0.000000   0.000000  0.000000  0.000000     0.0    0.0    0.0     0.0    0.0    0.0 0.000 0.000  0  0  0 0.0000 0.0000 0
     14 "Bus 14      " 138.00      46 "Bus 46      " 138.00  "1 " "                                " :  1  1       0 "            "   0.00  0       0 "            "   0.00       0 "            "   0.00    1    1 100.000000 0.000000E+000 7.350000E-002 0.000000E+000 0.000000E+000 0.000000E+000 0.000000E+000 /
 138.000000 138.000000  0.000000  0.000000 0.000000E+000 0.000000E+000    0.0    0.0    0.0    0.0 0.000  1.500000  0.510000  1.500000  0.510000 -0.006250  0.900000  1.000000  1.000000  1.000000   400101   391231   0 1     0.0    0.0    0.0    0.0 /
   1 1.000   0 0.000   0 0.000   0 0.000   0 0.000   0 0.000   0 0.000   0 0.000  0 /
   0.000000   0.000000  0.000000  0.000000     0.0    0.0    0.0     0.0    0.0    0.0 0.000 0.000  0  0  0 0.0000 0.0000 0
     15 "Bus 15      " 138.00      45 "Bus 45      " 138.00  "1 " "                                " :  1  1       0 "            "   0.00  0       0 "            "   0.00       0 "            "   0.00    1    1 100.000000 0.000000E+000 1.042000E-001 0.000000E+000 0.000000E+000 0.000000E+000 0.000000E+000 /
 138.000000 138.000000  0.000000  0.000000 0.000000E+000 0.000000E+000    0.0    0.0    0.0    0.0 0.000  1.500000  0.510000  1.500000  0.510000 -0.006250  0.955000  1.000000  1.000000  1.000000   400101   391231   0 1     0.0    0.0    0.0    0.0 /
   1 1.000   0 0.000   0 0.000   0 0.000   0 0.000   0 0.000   0 0.000   0 0.000  0 /
   0.000000   0.000000  0.000000  0.000000     0.0    0.0    0.0     0.0    0.0    0.0 0.000 0.000  0  0  0 0.0000 0.0000 0
     21 "Bus 21      " 138.00      20 "Bus 20      " 138.00  "1 " "                                " :  1  1       0 "            "   0.00  0       0 "            "   0.00       0 "            "   0.00    1    1 100.000000 0.000000E+000 7.767000E-001 0.000000E+000 0.000000E+000 0.000000E+000 0.000000E+000 /
 138.000000 138.000000  0.000000  0.000000 0.000000E+000 0.000000E+000    0.0    0.0    0.0    0.0 0.000  1.500000  0.510000  1.500000  0.510000 -0.006250  1.043000  1.000000  1.000000  1.000000   400101   391231   0 1     0.0    0.0    0.0    0.0 /
   1 1.000   0 0.000   0 0.000   0 0.000   0 0.000   0 0.000   0 0.000   0 0.000  0 /
   0.000000   0.000000  0.000000  0.000000     0.0    0.0    0.0     0.0    0.0    0.0 0.000 0.000  0  0  0 0.0000 0.0000 0
     24 "Bus 24      " 138.00      26 "Bus 26      " 138.00  "1 " "                                " :  1  1       0 "            "   0.00  0       0 "            "   0.00       0 "            "   0.00    1    1 100.000000 0.000000E+000 4.730000E-002 0.000000E+000 0.000000E+000 0.000000E+000 0.000000E+000 /
 138.000000 138.000000  0.000000  0.000000 0.000000E+000 0.000000E+000    0.0    0.0    0.0    0.0 0.000  1.500000  0.510000  1.500000  0.510000 -0.006250  1.043000  1.000000  1.000000  1.000000   400101   391231   0 1     0.0    0.0    0.0    0.0 /
   1 1.000   0 0.000   0 0.000   0 0.000   0 0.000   0 0.000   0 0.000   0 0.000  0 /
   0.000000   0.000000  0.000000  0.000000     0.0    0.0    0.0     0.0    0.0    0.0 0.000 0.000  0  0  0 0.0000 0.0000 0
     34 "Bus 34      " 138.00      32 "Bus 32      " 138.00  "1 " "                                " :  1  1       0 "            "   0.00  0       0 "            "   0.00       0 "            "   0.00    1    1 100.000000 0.000000E+000 9.530000E-001 0.000000E+000 0.000000E+000 0.000000E+000 0.000000E+000 /
 138.000000 138.000000  0.000000  0.000000 0.000000E+000 0.000000E+000    0.0    0.0    0.0    0.0 0.000  1.500000  0.510000  1.500000  0.510000 -0.006250  0.975000  1.000000  1.000000  1.000000   400101   391231   0 1     0.0    0.0    0.0    0.0 /
   1 1.000   0 0.000   0 0.000   0 0.000   0 0.000   0 0.000   0 0.000   0 0.000  0 /
   0.000000   0.000000  0.000000  0.000000     0.0    0.0    0.0     0.0    0.0    0.0 0.000 0.000  0  0  0 0.0000 0.0000 0
     39 "Bus 39      " 138.00      57 "Bus 57      " 138.00  "1 " "                                " :  1  1       0 "            "   0.00  0       0 "            "   0.00       0 "            "   0.00    1    1 100.000000 0.000000E+000 1.355000E+000 0.000000E+000 0.000000E+000 0.000000E+000 0.000000E+000 /
 138.000000 138.000000  0.000000  0.000000 0.000000E+000 0.000000E+000    0.0    0.0    0.0    0.0 0.000  1.500000  0.510000  1.500000  0.510000 -0.006250  0.980000  1.000000  1.000000  1.000000   400101   391231   0 1     0.0    0.0    0.0    0.0 /
   1 1.000   0 0.000   0 0.000   0 0.000   0 0.000   0 0.000   0 0.000   0 0.000  0 /
   0.000000   0.000000  0.000000  0.000000     0.0    0.0    0.0     0.0    0.0    0.0 0.000 0.000  0  0  0 0.0000 0.0000 0
     40 "Bus 40      " 138.00      56 "Bus 56      " 138.00  "1 " "                                " :  1  1       0 "            "   0.00  0       0 "            "   0.00       0 "            "   0.00    1    1 100.000000 0.000000E+000 1.195000E+000 0.000000E+000 0.000000E+000 0.000000E+000 0.000000E+000 /
 138.000000 138.000000  0.000000  0.000000 0.000000E+000 0.000000E+000    0.0    0.0    0.0    0.0 0.000  1.500000  0.510000  1.500000  0.510000 -0.006250  0.958000  1.000000  1.000000  1.000000   400101   391231   0 1     0.0    0.0    0.0    0.0 /
   1 1.000   0 0.000   0 0.000   0 0.000   0 0.000   0 0.000   0 0.000   0 0.000  0 /
   0.000000   0.000000  0.000000  0.000000     0.0    0.0    0.0     0.0    0.0    0.0 0.000 0.000  0  0  0 0.0000 0.0000 0
generator data  [   7]         id   ------------long_id_------------    st ---no--     reg_name           prf  qrf  ar zone   pgen   pmax   pmin   qgen   qmax   qmin   mbase  cmp_r cmp_x gen_r gen_x           hbus                         tbus                date_in date_out pid N
      1 "Kanawha     " 138.00 "1 " "                                " :  1       1 "Kanawha     " 138.00  0.000000  1.000000   1    1 478.663731 10000.000000 -10000.000000 128.849459  0.000000  0.000000 100.0000 0.000 0.000 0.000 1.000      -1 "            "   0.00      -1 "            "   0.00    400101   391231   0 0 /
 0.0000 0.0000 1.0000   1 1.000   0 0.000   0 0.000   0 0.000    0 0.000    0 0.000    0 0.000    0 0.000    0   0   0   0   0   0   0    0.0 0 0  1.000000
      2 "Turner      " 138.00 "1 " "                                " :  1       2 "Turner      " 138.00  0.000000  1.000000   1    1   0.000000 10000.000000 -10000.000000 -0.754906 50.000000 -17.000000 100.0000 0.000 0.000 0.000 1.000      -1 "            "   0.00      -1 "            "   0.00    400101   391231   0 0 /
 0.0000 0.0000 1.0000   1 1.000   0 0.000   0 0.000   0 0.000    0 0.000    0 0.000    0 0.000    0 0.000    0   0   0   0   0   0   0    0.0 0 0  1.000000
      3 "Logan       " 138.00 "1 " "                                " :  1       3 "Logan       " 138.00  0.000000  1.000000   1    1  40.000001 10000.000000 -10000.000000 -0.904848 60.000002 -10.000000 100.0000 0.000 0.000 0.000 1.000      -1 "            "   0.00      -1 "            "   0.00    400101   391231   0 0 /
 0.0000 0.0000 1.0000   1 1.000   0 0.000   0 0.000   0 0.000    0 0.000    0 0.000    0 0.000    0 0.000    0   0   0   0   0   0   0    0.0 0 0  1.000000
      6 "Beaver C    " 138.00 "1 " "                                " :  1       6 "Beaver C    " 138.00  0.000000  1.000000   1    1   0.000000 10000.000000 -10000.000000  0.871422 25.000000 -8.000000 100.0000 0.000 0.000 0.000 1.000      -1 "            "   0.00      -1 "            "   0.00    400101   391231   0 0 /
 0.0000 0.0000 1.0000   1 1.000   0 0.000   0 0.000   0 0.000    0 0.000    0 0.000    0 0.000    0 0.000    0   0   0   0   0   0   0    0.0 0 0  1.000000
      8 "Clinch R    " 138.00 "1 " "                                " :  1       8 "Clinch R    " 138.00  0.000000  1.000000   1    1 450.000000 10000.000000 -10000.000000 62.099522 200.000000 -139.999998 100.0000 0.000 0.000 0.000 1.000      -1 "            "   0.00      -1 "            "   0.00    400101   391231   0 0 /
 0.0000 0.0000 1.0000   1 1.000   0 0.000   0 0.000   0 0.000    0 0.000    0 0.000    0 0.000    0 0.000    0   0   0   0   0   0   0    0.0 0 0  1.000000
      9 "Saltvill    " 138.00 "1 " "                                " :  1       9 "Saltvill    " 138.00  0.000000  1.000000   1    1   0.000000 10000.000000 -10000.000000  2.288473  9.000000 -3.000000 100.0000 0.000 0.000 0.000 1.000      -1 "            "   0.00      -1 "            "   0.00    400101   391231   0 0 /
 0.0000 0.0000 1.0000   1 1.000   0 0.000   0 0.000   0 0.000    0 0.000    0 0.000    0 0.000    0 0.000    0   0   0   0   0   0   0    0.0 0 0  1.000000
     12 "Glen Lyn    " 138.00 "1 " "                                " :  1      12 "Glen Lyn    " 138.00  0.000000  1.000000   1    1 309.999990 10000.000000 -10000.000000 128.630853 154.999995 -150.000000 100.0000 0.000 0.000 0.000 1.000      -1 "            "   0.00      -1 "            "   0.00    400101   391231   0 0 /
 0.0000 0.0000 1.0000   1 1.000   0 0.000   0 0.000   0 0.000    0 0.000    0 0.000    0 0.000    0 0.000    0   0   0   0   0   0   0    0.0 0 0  1.000000
load data  [  42]             id   ------------long_id_------------     st      mw      mvar    mw_i    mvar_i  mw_z      mvar_z  ar zone  date_in date_out pid N own M nonc  thr_bus flg
      1 "Kanawha     " 138.00 "1 " "                                "  :  1 55.000001 17.000000 0.000000 0.000000 0.000000 0.000000   1    1   400101   391231   0 0   1 0    0       0 "            "   0.00   0
      2 "Turner      " 138.00 "1 " "                                "  :  1 3.000000 88.000000 0.000000 0.000000 0.000000 0.000000   1    1   400101   391231   0 0   1 0    0       0 "            "   0.00   0
      3 "Logan       " 138.00 "1 " "                                "  :  1 41.000000 20.999999 0.000000 0.000000 0.000000 0.000000   1    1   400101   391231   0 0   1 0    0       0 "            "   0.00   0
      5 "Bus 5       " 138.00 "1 " "                                "  :  1 13.000000 4.000000 0.000000 0.000000 0.000000 0.000000   1    1   400101   391231   0 0   1 0    0       0 "            "   0.00   0
      6 "Beaver C    " 138.00 "1 " "                                "  :  1 75.000000 2.000000 0.000000 0.000000 0.000000 0.000000   1    1   400101   391231   0 0   1 0    0       0 "            "   0.00   0
      8 "Clinch R    " 138.00 "1 " "                                "  :  1 150.000000 22.000000 0.000000 0.000000 0.000000 0.000000   1    1   400101   391231   0 0   1 0    0       0 "            "   0.00   0
      9 "Saltvill    " 138.00 "1 " "                                "  :  1 121.000004 25.999999 0.000000 0.000000 0.000000 0.000000   1    1   400101   391231   0 0   1 0    0       0 "            "   0.00   0
     10 "Bus 10      " 138.00 "1 " "                                "  :  1 5.000000 2.000000 0.000000 0.000000 0.000000 0.000000   1    1   400101   391231   0 0   1 0    0       0 "            "   0.00   0
     12 "Glen Lyn    " 138.00 "1 " "                                "  :  1 376.999998 23.999999 0.000000 0.000000 0.000000 0.000000   1    1   400101   391231   0 0   1 0    0       0 "            "   0.00   0
     13 "Bus 13      " 138.00 "1 " "                                "  :  1 18.000001 2.300000 0.000000 0.000000 0.000000 0.000000   1    1   400101   391231   0 0   1 0    0       0 "            "   0.00   0
     14 "Bus 14      " 138.00 "1 " "                                "  :  1 10.500000 5.300000 0.000000 0.000000 0.000000 0.000000   1    1   400101   391231   0 0   1 0    0       0 "            "   0.00   0
     15 "Bus 15      " 138.00 "1 " "                                "  :  1 22.000000 5.000000 0.000000 0.000000 0.000000 0.000000   1    1   400101   391231   0 0   1 0    0       0 "            "   0.00   0
     16 "Bus 16      " 138.00 "1 " "                                "  :  1 43.000001 3.000000 0.000000 0.000000 0.000000 0.000000   1    1   400101   391231   0 0   1 0    0       0 "            "   0.00   0
     17 "Bus 17      " 138.00 "1 " "                                "  :  1 41.999999 8.000000 0.000000 0.000000 0.000000 0.000000   1    1   400101   391231   0 0   1 0    0       0 "            "   0.00   0
     18 "Sprigg      " 138.00 "1 " "                                "  :  1 27.200001 9.800000 0.000000 0.000000 0.000000 0.000000   1    1   400101   391231   0 0   1 0    0       0 "            "   0.00   0
     19 "Bus 19      " 138.00 "1 " "                                "  :  1 3.300000 0.600000 0.000000 0.000000 0.000000 0.000000   1    1   400101   391231   0 0   1 0    0       0 "            "   0.00   0
     20 "Bus 20      " 138.00 "1 " "                                "  :  1 2.300000 1.000000 0.000000 0.000000 0.000000 0.000000   1    1   400101   391231   0 0   1 0    0       0 "            "   0.00   0
     23 "Bus 23      " 138.00 "1 " "                                "  :  1 6.300000 2.100000 0.000000 0.000000 0.000000 0.000000   1    1   400101   391231   0 0   1 0    0       0 "            "   0.00   0
     25 "Bus 25      " 138.00 "1 " "                                "  :  1 6.300000 3.200000 0.000000 0.000000 0.000000 0.000000   1    1   400101   391231   0 0   1 0    0       0 "            "   0.00   0
     27 "Bus 27      " 138.00 "1 " "                                "  :  1 9.300000 0.500000 0.000000 0.000000 0.000000 0.000000   1    1   400101   391231   0 0   1 0    0       0 "            "   0.00   0
     28 "Bus 28      " 138.00 "1 " "                                "  :  1 4.600000 2.300000 0.000000 0.000000 0.000000 0.000000   1    1   400101   391231   0 0   1 0    0       0 "            "   0.00   0
     29 "Bus 29      " 138.00 "1 " "                                "  :  1 17.000000 2.600000 0.000000 0.000000 0.000000 0.000000   1    1   400101   391231   0 0   1 0    0       0 "            "   0.00   0
     30 "Bus 30      " 138.00 "1 " "                                "  :  1 3.600000 1.800000 0.000000 0.000000 0.000000 0.000000   1    1   400101   391231   0 0   1 0    0       0 "            "   0.00   0
     31 "Bus 31      " 138.00 "1 " "                                "  :  1 5.800000 2.900000 0.000000 0.000000 0.000000 0.000000   1    1   400101   391231   0 0   1 0    0       0 "            "   0.00   0
     32 "Bus 32      " 138.00 "1 " "                                "  :  1 1.600000 0.800000 0.000000 0.000000 0.000000 0.000000   1    1   400101   391231   0 0   1 0    0       0 "            "   0.00   0
     33 "Bus 33      " 138.00 "1 " "                                "  :  1 3.800000 1.900000 0.000000 0.000000 0.000000 0.000000   1    1   400101   391231   0 0   1 0    0       0 "            "   0.00   0
     35 "Bus 35      " 138.00 "1 " "                                "  :  1 6.000000 3.000000 0.000000 0.000000 0.000000 0.000000   1    1   400101   391231   0 0   1 0    0       0 "            "   0.00   0
     38 "Bus 38      " 138.00 "1 " "                                "  :  1 14.000000 7.000000 0.000000 0.000000 0.000000 0.000000   1    1   400101   391231   0 0   1 0    0       0 "            "   0.00   0
     41 "Tazewell    " 138.00 "1 " "                                "  :  1 6.300000 3.000000 0.000000 0.000000 0.000000 0.000000   1    1   400101   391231   0 0   1 0    0       0 "            "   0.00   0
     42 "Bus 42      " 138.00 "1 " "                                "  :  1 7.100000 4.400000 0.000000 0.000000 0.000000 0.000000   1    1   400101   391231   0 0   1 0    0       0 "            "   0.00   0
     43 "Tazewell    " 138.00 "1 " "                                "  :  1 2.000000 1.000000 0.000000 0.000000 0.000000 0.000000   1    1   400101   391231   0 0   1 0    0       0 "            "   0.00   0
     44 "Bus 44      " 138.00 "1 " "                                "  :  1 12.000000 1.800000 0.000000 0.000000 0.000000 0.000000   1    1   400101   391231   0 0   1 0    0       0 "            "   0.00   0
     47 "Bus 47      " 138.00 "1 " "                                "  :  1 29.699999 11.600000 0.000000 0.000000 0.000000 0.000000   1    1   400101   391231   0 0   1 0    0       0 "            "   0.00   0
     49 "Bus 49      " 138.00 "1 " "                                "  :  1 18.000001 8.500000 0.000000 0.000000 0.000000 0.000000   1    1   400101   391231   0 0   1 0    0       0 "            "   0.00   0
     50 "Bus 50      " 138.00 "1 " "                                "  :  1 20.999999 10.500000 0.000000 0.000000 0.000000 0.000000   1    1   400101   391231   0 0   1 0    0       0 "            "   0.00   0
     51 "Bus 51      " 138.00 "1 " "                                "  :  1 18.000001 5.300000 0.000000 0.000000 0.000000 0.000000   1    1   400101   391231   0 0   1 0    0       0 "            "   0.00   0
     52 "Bus 52      " 138.00 "1 " "                                "  :  1 4.900000 2.200000 0.000000 0.000000 0.000000 0.000000   1    1   400101   391231   0 0   1 0    0       0 "            "   0.00   0
     53 "Bus 53      " 138.00 "1 " "                                "  :  1 20.000000 10.000000 0.000000 0.000000 0.000000 0.000000   1    1   400101   391231   0 0   1 0    0       0 "            "   0.00   0
     54 "Bus 54      " 138.00 "1 " "                                "  :  1 4.100000 1.400000 0.000000 0.000000 0.000000 0.000000   1    1   400101   391231   0 0   1 0    0       0 "            "   0.00   0
     55 "Saltvill    " 138.00 "1 " "                                "  :  1 6.800000 3.400000 0.000000 0.000000 0.000000 0.000000   1    1   400101   391231   0 0   1 0    0       0 "            "   0.00   0
     56 "Bus 56      " 138.00 "1 " "                                "  :  1 7.600000 2.200000 0.000000 0.000000 0.000000 0.000000   1    1   400101   391231   0 0   1 0    0       0 "            "   0.00   0
     57 "Bus 57      " 138.00 "1 " "                                "  :  1 6.700000 2.000000 0.000000 0.000000 0.000000 0.000000   1    1   400101   391231   0 0   1 0    0       0 "            "   0.00   0
shunt data  [   3]             id                                 ck  se  ------------long_id_------------     st ar  zone    pu_mw  pu_mvar  date_in date_out pid N own part1 own part2 own part3 own part4 --num-- ----name----  --kv-- M --num--  ----name----  --kv--  ID  st
     18 "Sprigg      " 138.00 "b "       0 "            "   0.00 "  "  0 "                                "  :  1   1    1 0.000000 0.100000   400101   391231   0 0   1 1.000   0 0.000   0 0.000   0 0.000      -1 "            "   0.00 "  "  0 0
     25 "Bus 25      " 138.00 "b "       0 "            "   0.00 "  "  0 "                                "  :  1   1    1 0.000000 0.059000   400101   391231   0 0   1 1.000   0 0.000   0 0.000   0 0.000      -1 "            "   0.00 "  "  0 0
     53 "Bus 53      " 138.00 "b "       0 "            "   0.00 "  "  0 "                                "  :  1   1    1 0.000000 0.063000   400101   391231   0 0   1 1.000   0 0.000   0 0.000   0 0.000      -1 "            "   0.00 "  "  0 0
svd data  [   0]               id   ------------long_id_------------    st ty --no---     reg_name           ar zone      g      b  min_c  max_c  vband   bmin   bmax  date_in date_out pid N own part1 own part2 own part3 own part4 M st
area data  [  1]                            swing  desired    tol      pnet     qnet
...